# WEL6 input file, prepared by MF5to6 on 2/25/2018 at 17:08:10.

BEGIN Options
  AUXILIARY IFACE
  PRINT_INPUT
  PRINT_FLOWS
  SAVE_FLOWS
END Options

BEGIN Dimensions
  MAXBOUND  6
END Dimensions

BEGIN PERIOD 1
  1  9  16  -0.82000000E-02    0.0000000
  1  11  13  -0.41000000E-02    0.0000000
  1  20  14  -0.39000000E-02    0.0000000
  1  26  10  -0.83000000E-03    0.0000000
  1  29  6  -0.72000000E-03    0.0000000
  1  34  12  -0.43000000E-02    0.0000000
END PERIOD
