#!/bin/bash

curl -L -o linux.zip https://github.com/MODFLOW-USGS/executables/releases/download/2.0/linux.zip
unzip linux.tar
